LAMMPS (29 Oct 2020)
units           real
atom_style      full
boundary        p p p

read_data       1H2O
Reading data file ...
  orthogonal box = (0.0000000 0.0000000 0.0000000) to (3.9199999 3.9199999 3.9199999)
  reading atoms ...
  3 atoms
  scanning bonds ...
  scanning angles ...
  reading bonds ...
  2 bonds
  reading angles ...
  1 angles
Finding 1-2 1-3 1-4 neighbors ...
     2 = max # of 1-2 neighbors
     1 = max # of 1-3 neighbors
     1 = max # of 1-4 neighbors
     2 = max # of special neighbors
replicate       16 16 16
Replicating atoms ...
  orthogonal box = (0.0000000 0.0000000 0.0000000) to (62.719998 62.719998 62.719998)
  12288 atoms
  8192 bonds
  4096 angles
Finding 1-2 1-3 1-4 neighbors ...
     2 = max # of 1-2 neighbors
     1 = max # of 1-3 neighbors
     1 = max # of 1-4 neighbors
     2 = max # of special neighbors
  replicate CPU = 0.014 seconds

pair_style      lj/cut/tip4p/long 1 2 1 1 0.1546 12
kspace_style    pppm/tip4p 1.0e-4

bond_style      harmonic
angle_style     harmonic

pair_coeff      1 1 0.18521 3.1589 # O-O
pair_coeff      2 2 0.0    0.0     # H-H
pair_coeff      1 2 0.0    0.0     # O-H
pair_modify     tail yes

bond_coeff      1 1000.0 0.9572    # O-H
angle_coeff     1 100.0 104.52     # H-O-H

group           gH2O type 1 2
12288 atoms in group gH2O

neighbor        3.0 bin
neigh_modify    delay 0 every 1 check yes

velocity        all create 298.15 12345 dist gaussian
fix             1 gH2O shake 1.0e-4 100 0 b 1 a 1
       0 = # of size 2 clusters
       0 = # of size 3 clusters
       0 = # of size 4 clusters
    4096 = # of frozen angles
  find clusters CPU = 0.006 seconds

variable        massAll equal mass(all)/6.022e23
variable        volCm3  equal vol*1.0e-24
variable        density_sys equal v_massAll/v_volCm3

thermo          1000
thermo_style    custom step temp vol etotal pe ke epair ecoul lx ly lz v_density_sys cpuremain
thermo_modify   flush yes

fix             fnpt all npt temp 298.1 298.15 200.0 iso 0.9869 0.9869 1000.0

timestep	1.0
run             500000
PPPM initialization ...
  extracting TIP4P info from pair style
  G vector (1/distance) = 0.22714782
  grid = 30 30 30
  stencil order = 5
  estimated absolute RMS force accuracy = 0.024966596
  estimated relative force accuracy = 7.5186164e-05
  3d grid and FFT values/proc = 2002 192
  update every 1 steps, delay 0 steps, check yes
Step Temp Volume TotEng PotEng KinEng E_pair E_coul Lx Ly Lz v_density_sys CPULeft
0     447.2432    246727.82    4523.7628   -6396.0445    10919.807   -6396.0445     360075.4    62.719998    62.719998    62.719998   0.49663825            0
Averages over the last 251 of 501 rows, steps 250000 to 500000:
Temp Volume TotEng PotEng KinEng E_pair E_coul Lx Ly Lz v_density_sys
298.045 122756 -50429.9 -57706.9 7277 -57706.9 293100 49.699 49.699 49.699 0.99821
Loop time of 2223.39 on 160 procs for 500000 steps with 12288 atoms

unfix		1
reset_atom_ids
PPPM initialization ...
  extracting TIP4P info from pair style
  G vector (1/distance) = 0.22775273
  grid = 24 24 24
  stencil order = 5
  estimated absolute RMS force accuracy = 0.033978578
  estimated relative force accuracy = 0.00010232548
  3d grid and FFT values/proc = 1560 144
Finding 1-2 1-3 1-4 neighbors ...
     2 = max # of 1-2 neighbors
     1 = max # of 1-3 neighbors
     1 = max # of 1-4 neighbors
     2 = max # of special neighbors
write_data  16by16by16_H2O.data pair ij
System init for write_data ...
PPPM initialization ...
  extracting TIP4P info from pair style
  G vector (1/distance) = 0.22775273
  grid = 24 24 24
  stencil order = 5
  estimated absolute RMS force accuracy = 0.033978578
  estimated relative force accuracy = 0.00010232548
  3d grid and FFT values/proc = 1560 144
